version 2
2
9
.tran 1m 1{return}.kicad adjustpaths{return}.save all{return}.probe alli
4
2
I(R3)
 
1
V(/vo)
 
1
V(/vref)
 
1
V(/vsense)
 
2
.dc R2 100 10k 5{return}.kicad adjustpaths{return}.save all{return}.probe alli
1
2
I(R3)
 
